20
Atoms. Timestep: 0
C 50.2482 50.3361 51.8775
H 51.3704 50.3361 51.8775
H 49.9188 51.4089 51.8775
C 49.7445 49.6546 50.6229
H 50.074 48.5821 50.6205
H 48.6226 49.6551 50.6203
C 50.2555 50.3454 49.3771
H 51.3774 50.3447 49.3796
H 49.9261 51.418 49.3796
C 49.7421 49.6513 53.1205
H 48.6256 49.663 53.1506
H 50.0812 48.5875 53.1507
H 50.1249 50.1693 54.0328
C 49.7516 49.664 48.1225
H 50.0807 48.5911 48.1226
H 48.6294 49.6644 48.1225
C 50.258 50.3486 46.8795
H 49.9193 51.4125 46.8493
H 51.3745 50.3365 46.8494
H 49.8751 49.8307 45.9673
20
Atoms. Timestep: 100
C 50.297 50.3498 51.9702
H 50.9689 50.3404 51.9039
H 49.9499 51.026 51.8953
C 49.7283 49.6365 50.6465
H 50.1242 48.9412 50.7462
H 49.0233 49.6271 50.5397
C 50.2821 50.3887 49.3391
H 51.1418 50.3267 49.5671
H 49.8598 50.9773 49.4738
C 49.6668 49.6504 53.2996
H 49.0472 49.6086 53.1556
H 49.8633 48.9878 53.1515
H 49.9376 49.8327 53.8019
C 49.7649 49.6258 48.0573
H 50.0728 48.9524 48.0904
H 48.9911 49.8365 48.0758
C 50.275 50.3886 46.7023
H 50.1231 51.0951 46.7463
H 50.8832 50.3822 46.8184
H 50.0714 50.0107 46.1086
20
Atoms. Timestep: 200
C 50.3755 50.3412 52.0383
H 50.5622 50.2991 51.8925
H 50.0592 50.6716 51.7592
C 49.726 49.6427 50.6625
H 50.1537 49.1513 50.9274
H 49.3296 49.6525 50.5144
C 50.26 50.3954 49.2978
H 50.9611 50.2445 49.7715
H 49.7959 50.6227 49.6212
C 49.5992 49.6692 53.5024
H 49.3135 49.5576 53.1309
H 49.6585 49.3021 53.174
H 49.8454 49.5912 53.4876
C 49.7713 49.6243 47.9945
H 50.1787 49.3633 48.0663
H 49.3012 50.0764 48.0547
C 50.2682 50.4208 46.4706
H 50.3289 50.9016 46.6005
H 50.4339 50.4043 46.7885
H 50.0479 50.2163 46.2793
20
Atoms. Timestep: 300
C 50.4415 50.3431 52.0836
H 50.1794 50.1529 51.911
H 50.2332 50.5533 51.5141
C 49.7341 49.6209 50.6661
H 50.147 49.3171 51.2775
H 49.5007 49.697 50.5743
C 50.2237 50.4375 49.2726
H 50.8589 50.3004 50.0076
H 49.8029 50.3174 49.6766
C 49.5391 49.6765 53.7075
H 49.3762 49.4575 53.2342
H 49.6172 49.399 53.2284
H 49.8865 49.2873 53.3447
C 49.7926 49.6054 47.9697
H 50.3227 49.6748 48.0524
H 49.5511 50.2421 48.2817
C 50.2571 50.4389 46.24
H 50.3905 50.7438 46.5082
H 50.2077 50.4867 46.916
H 49.9959 50.2896 46.3051
20
Atoms. Timestep: 400
C 50.5019 50.3226 52.1351
H 49.9446 50.1584 52.1037
H 50.5887 50.4671 51.2349
C 49.6992 49.5772 50.6565
H 50.0628 49.6178 51.4992
H 49.6571 49.6397 50.5447
C 50.1972 50.5196 49.2813
H 50.8454 50.1819 50.2578
H 49.7217 50.1968 49.6992
C 49.4821 49.6825 53.9041
H 49.2739 49.2513 53.4011
H 49.6272 49.4259 53.3262
H 49.785 49.0473 53.3611
C 49.7684 49.6135 47.9155
H 50.5814 49.8564 48.125
H 49.759 50.1824 48.5337
C 50.2584 50.4468 46.0007
H 50.5026 50.7378 46.4321
H 50.1352 50.3542 46.9737
H 49.9691 50.3076 46.1725
20
Atoms. Timestep: 500
C 50.5095 50.3551 52.1773
H 49.7674 50.2195 52.2334
H 50.753 50.3226 50.921
C 49.733 49.4973 50.6449
H 50.0309 49.7606 51.5605
H 49.8209 49.5207 50.323
C 50.1818 50.5955 49.2757
H 50.8008 50.1305 50.4065
H 49.6182 50.1018 49.6707
C 49.442 49.6954 54.0962
H 49.0984 49.0752 53.4399
H 49.7416 49.4648 53.4224
H 49.7892 48.9404 53.3353
C 49.7634 49.626 47.891
H 50.8309 49.8799 48.1565
H 49.8779 49.9961 48.6708
C 50.2674 50.4412 45.7541
H 50.6666 50.6398 46.385
H 50.0084 50.2403 46.9326
H 49.9193 50.3044 46.0924
20
Atoms. Timestep: 600
C 50.5449 50.3714 52.1809
H 49.6607 50.0785 52.3223
H 50.8888 50.0447 50.6125
C 49.7129 49.467 50.7261
H 49.9606 49.7979 51.5228
H 49.9247 49.5686 50.077
C 50.1978 50.662 49.2604
H 50.8186 50.1959 50.6006
H 49.6099 50.0004 49.6811
C 49.4171 49.697 54.3046
H 48.8285 48.964 53.4654
H 49.8297 49.638 53.4339
H 49.7779 48.8565 53.2152
C 49.7368 49.6258 47.8809
H 50.9719 50.0701 48.1494
H 49.9048 49.958 48.7662
C 50.2676 50.4656 45.5251
H 50.8042 50.4552 46.2063
H 49.8654 50.1706 46.8147
H 50.0682 50.3079 45.9891
20
Atoms. Timestep: 700
C 50.5738 50.3727 52.2129
H 49.5451 50.0893 52.3279
H 50.9376 49.9495 50.3523
C 49.689 49.4533 50.8583
H 49.9651 49.8982 51.3257
H 49.9302 49.5939 49.988
C 50.2343 50.7158 49.2497
H 50.888 50.382 50.8091
H 49.6389 49.8018 49.7408
C 49.3846 49.6704 54.5098
H 48.7205 48.8816 53.4188
H 49.9826 49.751 53.3376
H 49.855 48.7819 53.1147
C 49.6958 49.596 47.8934
H 50.9616 50.2536 48.0241
H 49.9262 49.9116 48.9173
C 50.2831 50.4906 45.2977
H 50.8965 50.3453 45.8514
H 49.9582 50.1762 46.6024
H 50.1745 50.147 45.9343
20
Atoms. Timestep: 800
C 50.5783 50.3465 52.2614
H 49.5101 50.3598 52.2372
H 50.966 49.9441 50.1398
C 49.6674 49.4255 50.9256
H 50.1873 50.0169 51.2454
H 49.9166 49.6199 49.827
C 50.2722 50.7603 49.2371
H 50.8029 50.3963 50.9204
H 49.7591 49.8044 49.7291
C 49.347 49.6404 54.7098
H 48.6219 48.8223 53.3093
H 50.1447 49.7607 53.233
H 49.9426 48.6278 52.984
C 49.6503 49.5302 47.9652
H 50.7454 50.4553 47.9733
H 49.9311 49.7554 49.0299
C 50.3085 50.5267 45.0678
H 50.9627 50.3334 45.4628
H 50.0152 50.1103 46.3363
H 50.2324 49.9771 45.8475
20
Atoms. Timestep: 900
C 50.5488 50.3268 52.3309
H 49.5511 50.6033 52.0971
H 51.0108 49.9378 49.9142
C 49.6406 49.447 50.9288
H 50.5342 50.1721 51.2894
H 50.0255 49.6216 49.7117
C 50.3065 50.7759 49.2069
H 50.8254 50.4964 50.8882
H 49.9357 49.9246 49.8635
C 49.3106 49.6234 54.9071
H 48.6452 48.7166 53.1738
H 50.1452 49.6118 53.2423
H 50.0159 48.3316 52.7528
C 49.6363 49.4814 48.0485
H 50.5867 50.6973 48.0553
H 49.884 49.5197 49.1532
C 50.3361 50.5929 44.8369
H 51.0426 50.208 45.2046
H 50.0773 49.9572 46.131
H 50.369 49.829 45.8385
20
Atoms. Timestep: 1000
C 50.5472 50.3476 52.3812
H 49.704 50.8601 51.951
H 51.1922 50.043 49.7663
C 49.6057 49.4284 50.8819
H 50.6801 50.2544 51.353
H 50.1296 49.6147 49.6024
C 50.307 50.7812 49.1751
H 50.8375 50.7445 50.9616
H 50.1137 50.0317 49.8655
C 49.2774 49.6211 55.1082
H 48.6494 48.6563 53.0076
H 50.152 49.5556 53.2673
H 50.1944 48.1352 52.5165
C 49.6301 49.4656 48.1236
H 50.366 50.9124 48.0485
H 49.8293 49.2905 49.1785
C 50.3419 50.6492 44.6049
H 51.0832 50.0232 45.06
H 50.2013 49.9865 46.0203
H 50.5658 49.6818 45.8817
20
Atoms. Timestep: 1100
C 50.5444 50.3692 52.4214
H 49.8929 51.2181 51.7621
H 51.3494 50.117 49.7227
C 49.5778 49.3982 50.8406
H 50.875 50.3036 51.4464
H 50.2341 49.6427 49.5643
C 50.3248 50.7414 49.1763
H 50.853 51.0137 51.1771
H 50.2745 50.0171 49.9017
C 49.2446 49.6037 55.3195
H 48.6619 48.636 52.8008
H 49.9915 49.4463 53.3624
H 50.3432 47.9486 52.3437
C 49.6079 49.4694 48.188
H 50.1637 51.1548 47.9976
H 49.7828 49.151 49.0471
C 50.3407 50.7002 44.3832
H 51.1243 49.7172 44.9737
H 50.2398 50.0395 45.8009
H 50.7298 49.5193 45.9364
20
Atoms. Timestep: 1200
C 50.5416 50.3906 52.4611
H 50.0797 51.5721 51.5753
H 51.5048 50.19 49.6797
C 49.5502 49.3683 50.7997
H 51.0678 50.3522 51.5387
H 50.3375 49.6704 49.5265
C 50.3425 50.702 49.1774
H 50.8684 51.2799 51.3902
H 50.4334 50.0025 49.9374
C 49.2118 49.5863 55.5308
H 48.6742 48.6161 52.5964
H 49.8327 49.3381 53.4564
H 50.4903 47.7641 52.1728
C 49.586 49.4731 48.2516
H 49.9638 51.3944 47.9473
H 49.7367 49.013 48.9173
C 50.3395 50.7511 44.1616
H 51.165 49.4147 44.8884
H 50.2778 50.092 45.584
H 50.892 49.3586 45.9905
20
Atoms. Timestep: 1300
C 50.5388 50.4118 52.5005
H 50.2651 51.9236 51.3899
H 51.6591 50.2626 49.6369
C 49.5228 49.3386 50.7592
H 51.2592 50.4005 51.6304
H 50.4401 49.6979 49.489
C 50.36 50.6629 49.1786
H 50.8837 51.5442 51.6017
H 50.5912 49.9881 49.9729
C 49.1791 49.5689 55.7421
H 48.6865 48.5962 52.3934
H 49.6751 49.2308 53.5497
H 50.6363 47.5809 52.0031
C 49.5642 49.4768 48.3148
H 49.7652 51.6324 47.8973
H 49.691 48.8761 48.7883
C 50.3383 50.802 43.9399
H 51.2053 49.1144 44.8038
H 50.3155 50.1441 45.3686
H 51.053 49.1991 46.0443
20
Atoms. Timestep: 1400
C 50.5361 50.4329 52.5397
H 50.4498 52.2736 51.2052
H 51.8128 50.3349 49.5943
C 49.4955 49.3091 50.7188
H 51.4497 50.4486 51.7218
H 50.5423 49.7252 49.4517
C 50.3775 50.624 49.1797
H 50.8988 51.8074 51.8124
H 50.7483 49.9738 50.0082
C 49.1463 49.5515 55.9534
H 48.6987 48.5764 52.1912
H 49.5182 49.1239 53.6427
H 50.7817 47.3984 51.8341
C 49.5425 49.4805 48.3777
H 49.5675 51.8694 47.8476
H 49.6455 48.7397 48.6599
C 50.3371 50.853 43.7183
H 51.2455 48.8153 44.7194
H 50.3531 50.196 45.1541
H 51.2134 49.0403 46.0978
20
Atoms. Timestep: 1500
C 50.5334 50.454 52.5788
H 50.634 52.6226 51.021
H 51.9661 50.407 49.5518
C 49.4683 49.2796 50.6786
H 51.6398 50.4966 51.8128
H 50.6442 49.7525 49.4145
C 50.3949 50.5852 49.1809
H 50.914 52.0699 52.0225
H 50.905 49.9595 50.0434
C 49.1136 49.5341 56.1646
H 48.7108 48.5567 51.9896
H 49.3617 49.0172 53.7354
H 50.9268 47.2165 51.6656
C 49.5209 49.4842 48.4404
H 49.3703 52.1057 47.798
H 49.6001 48.6036 48.5319
C 50.3359 50.9039 43.4967
H 51.2856 48.517 44.6353
H 50.3906 50.2477 44.9402
H 51.3733 48.8818 46.1512
20
Atoms. Timestep: 1600
C 50.5307 50.475 52.6179
H 50.8179 52.9711 50.8371
H 52.1191 50.4789 49.5094
C 49.4411 49.2502 50.6384
H 51.8295 50.5444 51.9038
H 50.7459 49.7797 49.3773
C 50.4123 50.5465 49.182
H 50.9291 52.332 52.2322
H 51.0615 49.9452 50.0786
C 49.0808 49.5167 56.3759
H 48.723 48.537 51.7884
H 49.2054 48.9108 53.8279
H 51.0716 47.0348 51.4973
C 49.4993 49.4879 48.5031
H 49.1735 52.3417 47.7485
H 49.5548 48.4678 48.404
C 50.3348 50.9548 43.275
H 51.3257 48.2191 44.5514
H 50.428 50.2994 44.7266
H 51.533 48.7237 46.2045
20
Atoms. Timestep: 1700
C 50.5279 50.4961 52.657
H 51.0016 53.3193 50.6534
H 52.2719 50.5508 49.4671
C 49.414 49.2208 50.5982
H 52.0191 50.5923 51.9946
H 50.8475 49.807 49.3402
C 50.4297 50.5078 49.1832
H 50.9442 52.5938 52.4418
H 51.2178 49.9309 50.1138
C 49.048 49.4993 56.5872
H 48.7351 48.5173 51.5873
H 49.0493 48.8044 53.9204
H 51.2163 46.8533 51.3292
C 49.4777 49.4916 48.5657
H 48.9768 52.5775 47.699
H 49.5095 48.3321 48.2763
C 50.3336 51.0057 43.0534
H 51.3657 47.9216 44.4675
H 50.4653 50.351 44.5132
H 51.6925 48.5657 46.2578
20
Atoms. Timestep: 1800
C 50.5252 50.5171 52.696
H 51.1852 53.6673 50.4698
H 52.4247 50.6227 49.4247
C 49.3868 49.1915 50.5581
H 52.2086 50.6401 52.0854
H 50.9491 49.8342 49.3031
C 50.447 50.4691 49.1843
H 50.9593 52.8555 52.6512
H 51.374 49.9166 50.1489
C 49.0153 49.4818 56.7985
H 48.7473 48.4977 51.3863
H 48.8932 48.6981 54.0128
H 51.3608 46.6719 51.1612
C 49.4562 49.4953 48.6282
H 48.7802 52.8131 47.6496
H 49.4642 48.1965 48.1486
C 50.3324 51.0567 42.8317
H 51.4056 47.6242 44.3837
H 50.5027 50.4026 44.2999
H 51.8519 48.4077 46.311
20
Atoms. Timestep: 1900
C 50.5225 50.538 52.735
H 51.3687 54.0151 50.2863
H 52.5774 50.6945 49.3824
C 49.3597 49.1621 50.5179
H 52.398 50.6879 52.1762
H 51.0507 49.8614 49.266
C 50.4644 50.4304 49.1855
H 50.9744 53.117 52.8606
H 51.5302 49.9024 50.184
C 48.9825 49.4644 57.0098
H 48.7594 48.478 51.1854
H 48.7372 48.5919 54.1052
H 51.5054 46.4906 50.9933
C 49.4346 49.499 48.6907
H 48.5837 53.0486 47.6001
H 49.419 48.0609 48.021
C 50.3312 51.1076 42.6101
H 51.4456 47.327 44.2999
H 50.54 50.4542 44.0868
H 52.0112 48.2499 46.3642
20
Atoms. Timestep: 2000
C 50.5198 50.559 52.774
H 51.5522 54.3629 50.1028
H 52.7301 50.7663 49.3401
C 49.3326 49.1328 50.4778
H 52.5873 50.7357 52.2669
H 51.1522 49.8885 49.2289
C 50.4817 50.3918 49.1866
H 50.9895 53.3785 53.0699
H 51.6863 49.8881 50.2191
C 48.9498 49.447 57.2211
H 48.7715 48.4584 50.9846
H 48.5813 48.4856 54.1976
H 51.6499 46.3093 50.8254
C 49.4131 49.5026 48.7532
H 48.3873 53.2841 47.5507
H 49.3737 47.9253 47.8934
C 50.33 51.1585 42.3884
H 51.4855 47.0298 44.2161
H 50.5774 50.5057 43.8736
H 52.1706 48.092 46.4174
